lig_ejm_50
                    3D
 Schrodinger Suite 2021-1.
 33 34  0  0  1  0            999 V2000
   -4.7407   -2.8007  -16.5206 H   0  0  0  0  0  0
   -5.3375   -3.6602  -16.2492 C   0  0  0  0  0  0
   -6.6988   -3.5085  -15.9427 C   0  0  0  0  0  0
   -7.4826   -4.6158  -15.5701 C   0  0  0  0  0  0
   -6.9013   -5.9073  -15.5101 C   0  0  0  0  0  0
   -5.5338   -6.0613  -15.8595 C   0  0  0  0  0  0
   -4.7606   -4.9400  -16.2201 C   0  0  0  0  0  0
   -3.7153   -5.0588  -16.4660 H   0  0  0  0  0  0
   -4.7624   -7.6042  -15.8573 Cl  0  0  0  0  0  0
   -7.7212   -7.0854  -15.0665 C   0  0  0  0  0  0
   -8.1370   -7.1540  -13.9107 O   0  0  0  0  0  0
   -7.9092   -8.0096  -16.0246 N   0  0  0  0  0  0
   -7.4384   -7.8229  -16.8957 H   0  0  0  0  0  0
   -8.7197   -9.1759  -16.0211 C   0  0  0  0  0  0
   -9.5615   -9.5708  -14.9610 C   0  0  0  0  0  0
  -10.3569  -10.7141  -15.1352 C   0  0  0  0  0  0
  -10.3419  -11.4695  -16.2530 N   0  0  0  0  0  0
   -9.5242  -11.1188  -17.2726 C   0  0  0  0  0  0
   -8.7101   -9.9627  -17.1890 C   0  0  0  0  0  0
   -8.0973   -9.6494  -18.0199 H   0  0  0  0  0  0
   -9.5625  -11.9050  -18.4538 N   0  0  0  0  0  0
  -10.4069  -12.4561  -18.5599 H   0  0  0  0  0  0
   -8.6689  -12.0259  -19.4526 C   0  0  0  0  0  0
   -7.5644  -11.4802  -19.4823 O   0  0  0  0  0  0
   -9.0906  -12.9531  -20.5977 C   0  0  0  0  0  0
  -10.1509  -12.8238  -20.8247 H   0  0  0  0  0  0
   -8.9408  -13.9912  -20.2972 H   0  0  0  0  0  0
   -8.3258  -12.6946  -21.7586 O   0  0  0  0  0  0
   -7.4151  -12.6476  -21.5039 H   0  0  0  0  0  0
  -11.0298  -11.0323  -14.3527 H   0  0  0  0  0  0
   -9.6454   -9.0168  -14.0397 H   0  0  0  0  0  0
   -9.1622   -4.3576  -15.2426 Cl  0  0  0  0  0  0
   -7.1494   -2.5280  -15.9930 H   0  0  0  0  0  0
  1  2  1  0  0  0
  2  7  1  0  0  0
  2  3  2  0  0  0
  3  4  1  0  0  0
  3 33  1  0  0  0
  4  5  2  0  0  0
  4 32  1  0  0  0
  5  6  1  0  0  0
  5 10  1  0  0  0
  6  7  2  0  0  0
  6  9  1  0  0  0
  7  8  1  0  0  0
 10 11  2  0  0  0
 10 12  1  0  0  0
 12 13  1  0  0  0
 12 14  1  0  0  0
 14 19  1  0  0  0
 14 15  2  0  0  0
 15 16  1  0  0  0
 15 31  1  0  0  0
 16 17  2  0  0  0
 16 30  1  0  0  0
 17 18  1  0  0  0
 18 19  2  0  0  0
 18 21  1  0  0  0
 19 20  1  0  0  0
 21 22  1  0  0  0
 21 23  1  0  0  0
 23 24  2  0  0  0
 23 25  1  0  0  0
 25 26  1  0  0  0
 25 27  1  0  0  0
 25 28  1  0  0  0
 28 29  1  0  0  0
M  END
$$$$
lig_jmc_23
                    3D
 Schrodinger Suite 2021-1.
 36 38  0  0  1  0            999 V2000
   -4.7700   -2.7967  -16.4698 H   0  0  0  0  0  0
   -5.3584   -3.6628  -16.2099 C   0  0  0  0  0  0
   -6.7173   -3.5166  -15.8779 C   0  0  0  0  0  0
   -7.4912   -4.6306  -15.5087 C   0  0  0  0  0  0
   -6.9065   -5.9261  -15.4770 C   0  0  0  0  0  0
   -5.5406   -6.0683  -15.8390 C   0  0  0  0  0  0
   -4.7724   -4.9434  -16.1953 C   0  0  0  0  0  0
   -3.7284   -5.0562  -16.4552 H   0  0  0  0  0  0
   -4.7623   -7.6071  -15.8533 Cl  0  0  0  0  0  0
   -7.7234   -7.1102  -15.0433 C   0  0  0  0  0  0
   -8.1448   -7.1854  -13.8856 O   0  0  0  0  0  0
   -7.9206   -8.0215  -16.0141 N   0  0  0  0  0  0
   -7.4563   -7.8260  -16.8892 H   0  0  0  0  0  0
   -8.7421   -9.1784  -16.0218 C   0  0  0  0  0  0
   -9.5843   -9.5898  -14.9662 C   0  0  0  0  0  0
  -10.3877  -10.7245  -15.1581 C   0  0  0  0  0  0
  -10.3620  -11.4722  -16.2827 N   0  0  0  0  0  0
   -9.5499  -11.1036  -17.2988 C   0  0  0  0  0  0
   -8.7442   -9.9447  -17.2054 C   0  0  0  0  0  0
   -8.1307   -9.6239  -18.0278 H   0  0  0  0  0  0
   -9.5623  -11.8937  -18.4841 N   0  0  0  0  0  0
  -10.3919  -12.4621  -18.6020 H   0  0  0  0  0  0
   -8.6318  -12.0204  -19.4529 C   0  0  0  0  0  0
   -7.5619  -11.4096  -19.4883 O   0  0  0  0  0  0
   -9.0218  -12.9892  -20.5287 C   0  0  2  0  0  0
   -7.9719  -13.8793  -21.1922 C   0  0  1  0  0  0
   -8.5336  -12.6986  -21.9401 C   0  0  0  0  0  0
   -7.8647  -11.8533  -22.1049 H   0  0  0  0  0  0
   -9.2407  -12.8853  -22.7399 H   0  0  0  0  0  0
   -8.2355  -14.8945  -21.4853 H   0  0  0  0  0  0
   -6.6523  -13.7924  -20.7827 F   0  0  0  0  0  0
  -10.0162  -13.4255  -20.4361 H   0  0  0  0  0  0
  -11.0530  -11.0571  -14.3753 H   0  0  0  0  0  0
   -9.6547   -9.0464  -14.0372 H   0  0  0  0  0  0
   -9.1623   -4.3766  -15.1447 Cl  0  0  0  0  0  0
   -7.1669   -2.5330  -15.8999 H   0  0  0  0  0  0
  1  2  1  0  0  0
  2  7  1  0  0  0
  2  3  2  0  0  0
  3  4  1  0  0  0
  3 36  1  0  0  0
  4  5  2  0  0  0
  4 35  1  0  0  0
  5  6  1  0  0  0
  5 10  1  0  0  0
  6  7  2  0  0  0
  6  9  1  0  0  0
  7  8  1  0  0  0
 10 11  2  0  0  0
 10 12  1  0  0  0
 12 13  1  0  0  0
 12 14  1  0  0  0
 14 19  1  0  0  0
 14 15  2  0  0  0
 15 16  1  0  0  0
 15 34  1  0  0  0
 16 17  2  0  0  0
 16 33  1  0  0  0
 17 18  1  0  0  0
 18 19  2  0  0  0
 18 21  1  0  0  0
 19 20  1  0  0  0
 21 22  1  0  0  0
 21 23  1  0  0  0
 23 24  2  0  0  0
 23 25  1  0  0  0
 25 27  1  0  0  0
 25 26  1  0  0  0
 25 32  1  0  0  0
 26 27  1  0  0  0
 26 30  1  0  0  0
 26 31  1  0  0  0
 27 28  1  0  0  0
 27 29  1  0  0  0
M  END
$$$$
lig_jmc_30
                    3D
 Schrodinger Suite 2021-1.
 37 39  0  0  1  0            999 V2000
   -4.7581   -2.7844  -16.5183 H   0  0  0  0  0  0
   -5.3504   -3.6470  -16.2493 C   0  0  0  0  0  0
   -4.7668   -4.9245  -16.2236 C   0  0  0  0  0  0
   -5.5346   -6.0487  -15.8633 C   0  0  0  0  0  0
   -6.9027   -5.9037  -15.5145 C   0  0  0  0  0  0
   -7.4874   -4.6121  -15.5599 C   0  0  0  0  0  0
   -6.7094   -3.4979  -15.9251 C   0  0  0  0  0  0
   -7.1617   -2.5185  -15.9611 H   0  0  0  0  0  0
   -9.1624   -4.3548  -15.2137 Cl  0  0  0  0  0  0
   -7.7204   -7.0904  -15.0874 C   0  0  0  0  0  0
   -8.1419   -7.1662  -13.9334 O   0  0  0  0  0  0
   -7.9117   -8.0055  -16.0562 N   0  0  0  0  0  0
   -7.4387   -7.8110  -16.9264 H   0  0  0  0  0  0
   -8.7288   -9.1683  -16.0667 C   0  0  0  0  0  0
   -9.5666   -9.5735  -15.0060 C   0  0  0  0  0  0
  -10.3625  -10.7164  -15.1853 C   0  0  0  0  0  0
  -10.3491  -11.4653  -16.3075 N   0  0  0  0  0  0
   -9.5354  -11.1080  -17.3275 C   0  0  0  0  0  0
   -8.7256   -9.9473  -17.2409 C   0  0  0  0  0  0
   -8.1107   -9.6320  -18.0697 H   0  0  0  0  0  0
   -9.5622  -11.9027  -18.5059 N   0  0  0  0  0  0
  -10.4046  -12.4542  -18.6122 H   0  0  0  0  0  0
   -8.6202  -12.0704  -19.4570 C   0  0  0  0  0  0
   -7.5435  -11.4772  -19.4915 O   0  0  0  0  0  0
   -9.0163  -13.0533  -20.5084 C   0  0  2  0  0  0
   -7.9635  -13.8422  -21.2762 C   0  0  1  0  0  0
   -8.6961  -12.7160  -21.9502 C   0  0  0  0  0  0
   -8.1366  -11.8043  -22.1539 H   0  0  0  0  0  0
   -9.4526  -12.9656  -22.6920 H   0  0  0  0  0  0
   -8.2425  -14.8538  -21.5619 H   0  0  0  0  0  0
   -6.5348  -13.8040  -21.1435 C   0  0  0  0  0  0
   -5.3816  -13.7998  -21.0528 N   0  0  0  0  0  0
   -9.9634  -13.5647  -20.3422 H   0  0  0  0  0  0
  -11.0280  -11.0453  -14.4008 H   0  0  0  0  0  0
   -9.6417   -9.0286  -14.0782 H   0  0  0  0  0  0
   -4.7557   -7.5878  -15.8532 Cl  0  0  0  0  0  0
   -3.7222   -5.0408  -16.4744 H   0  0  0  0  0  0
  1  2  1  0  0  0
  2  7  1  0  0  0
  2  3  2  0  0  0
  3  4  1  0  0  0
  3 37  1  0  0  0
  4  5  2  0  0  0
  4 36  1  0  0  0
  5  6  1  0  0  0
  5 10  1  0  0  0
  6  7  2  0  0  0
  6  9  1  0  0  0
  7  8  1  0  0  0
 10 11  2  0  0  0
 10 12  1  0  0  0
 12 13  1  0  0  0
 12 14  1  0  0  0
 14 19  1  0  0  0
 14 15  2  0  0  0
 15 16  1  0  0  0
 15 35  1  0  0  0
 16 17  2  0  0  0
 16 34  1  0  0  0
 17 18  1  0  0  0
 18 19  2  0  0  0
 18 21  1  0  0  0
 19 20  1  0  0  0
 21 22  1  0  0  0
 21 23  1  0  0  0
 23 24  2  0  0  0
 23 25  1  0  0  0
 25 27  1  0  0  0
 25 26  1  0  0  0
 25 33  1  0  0  0
 26 27  1  0  0  0
 26 30  1  0  0  0
 26 31  1  0  0  0
 27 28  1  0  0  0
 27 29  1  0  0  0
 31 32  3  0  0  0
M  END
$$$$
lig_jmc_28
                    3D
 Schrodinger Suite 2021-1.
 39 41  0  0  1  0            999 V2000
   -4.7676   -2.7944  -16.5408 H   0  0  0  0  0  0
   -5.3594   -3.6522  -16.2627 C   0  0  0  0  0  0
   -6.7142   -3.4985  -15.9248 C   0  0  0  0  0  0
   -7.4900   -4.6097  -15.5453 C   0  0  0  0  0  0
   -6.9077   -5.9031  -15.4998 C   0  0  0  0  0  0
   -5.5427   -6.0525  -15.8605 C   0  0  0  0  0  0
   -4.7773   -4.9303  -16.2336 C   0  0  0  0  0  0
   -3.7350   -5.0485  -16.4949 H   0  0  0  0  0  0
   -4.7620   -7.5924  -15.8530 Cl  0  0  0  0  0  0
   -7.7277   -7.0849  -15.0679 C   0  0  0  0  0  0
   -8.1448   -7.1603  -13.9111 O   0  0  0  0  0  0
   -7.9285   -7.9977  -16.0348 N   0  0  0  0  0  0
   -7.4668   -7.8031  -16.9102 H   0  0  0  0  0  0
   -8.7442   -9.1591  -16.0386 C   0  0  0  0  0  0
   -9.5730   -9.5699  -14.9735 C   0  0  0  0  0  0
  -10.3640  -10.7158  -15.1515 C   0  0  0  0  0  0
  -10.3498  -11.4639  -16.2751 N   0  0  0  0  0  0
   -9.5432  -11.1001  -17.2985 C   0  0  0  0  0  0
   -8.7445   -9.9317  -17.2151 C   0  0  0  0  0  0
   -8.1367   -9.6069  -18.0449 H   0  0  0  0  0  0
   -9.5593  -11.8978  -18.4756 N   0  0  0  0  0  0
  -10.3895  -12.4680  -18.5785 H   0  0  0  0  0  0
   -8.6286  -12.0338  -19.4428 C   0  0  0  0  0  0
   -7.5637  -11.4137  -19.4782 O   0  0  0  0  0  0
   -9.0236  -13.0244  -20.4969 C   0  0  2  0  0  0
   -7.9784  -13.8384  -21.2586 C   0  0  1  0  0  0
   -8.6946  -12.7037  -21.9406 C   0  0  0  0  0  0
   -8.1261  -11.8005  -22.1498 H   0  0  0  0  0  0
   -9.4555  -12.9460  -22.6797 H   0  0  0  0  0  0
   -8.3139  -14.8407  -21.5198 H   0  0  0  0  0  0
   -6.4727  -13.7739  -21.0817 C   0  0  0  0  0  0
   -6.1123  -12.7481  -20.9994 H   0  0  0  0  0  0
   -5.9850  -14.2257  -21.9488 H   0  0  0  0  0  0
   -6.1791  -14.3297  -20.1961 H   0  0  0  0  0  0
   -9.9771  -13.5238  -20.3270 H   0  0  0  0  0  0
  -11.0259  -11.0467  -14.3647 H   0  0  0  0  0  0
   -9.6435   -9.0267  -14.0423 H   0  0  0  0  0  0
   -9.1620   -4.3438  -15.1865 Cl  0  0  0  0  0  0
   -7.1659   -2.5192  -15.9638 H   0  0  0  0  0  0
  1  2  1  0  0  0
  2  7  1  0  0  0
  2  3  2  0  0  0
  3  4  1  0  0  0
  3 39  1  0  0  0
  4  5  2  0  0  0
  4 38  1  0  0  0
  5  6  1  0  0  0
  5 10  1  0  0  0
  6  7  2  0  0  0
  6  9  1  0  0  0
  7  8  1  0  0  0
 10 11  2  0  0  0
 10 12  1  0  0  0
 12 13  1  0  0  0
 12 14  1  0  0  0
 14 19  1  0  0  0
 14 15  2  0  0  0
 15 16  1  0  0  0
 15 37  1  0  0  0
 16 17  2  0  0  0
 16 36  1  0  0  0
 17 18  1  0  0  0
 18 19  2  0  0  0
 18 21  1  0  0  0
 19 20  1  0  0  0
 21 22  1  0  0  0
 21 23  1  0  0  0
 23 24  2  0  0  0
 23 25  1  0  0  0
 25 27  1  0  0  0
 25 26  1  0  0  0
 25 35  1  0  0  0
 26 27  1  0  0  0
 26 30  1  0  0  0
 26 31  1  0  0  0
 27 28  1  0  0  0
 27 29  1  0  0  0
 31 32  1  0  0  0
 31 33  1  0  0  0
 31 34  1  0  0  0
M  END
$$$$
lig_ejm_47
                    3D
 Schrodinger Suite 2021-1.
 39 41  0  0  1  0            999 V2000
   -4.7589   -2.8048  -16.4721 H   0  0  0  0  0  0
   -5.3552   -3.6682  -16.2094 C   0  0  0  0  0  0
   -4.7741   -4.9469  -16.1925 C   0  0  0  0  0  0
   -5.5426   -6.0744  -15.8420 C   0  0  0  0  0  0
   -6.9110   -5.9327  -15.4861 C   0  0  0  0  0  0
   -7.4912   -4.6383  -15.5209 C   0  0  0  0  0  0
   -6.7142   -3.5211  -15.8824 C   0  0  0  0  0  0
   -7.1600   -2.5410  -15.9042 H   0  0  0  0  0  0
   -9.1627   -4.3758  -15.1704 Cl  0  0  0  0  0  0
   -7.7288   -7.1237  -15.0647 C   0  0  0  0  0  0
   -8.1544   -7.2059  -13.9109 O   0  0  0  0  0  0
   -7.9181   -8.0329  -16.0415 N   0  0  0  0  0  0
   -7.4425   -7.8325  -16.9113 H   0  0  0  0  0  0
   -8.7319   -9.1991  -16.0590 C   0  0  0  0  0  0
   -9.5627   -9.6216  -14.9977 C   0  0  0  0  0  0
  -10.3599  -10.7626  -15.1914 C   0  0  0  0  0  0
  -10.3428  -11.5026  -16.3200 N   0  0  0  0  0  0
   -9.5349  -11.1302  -17.3379 C   0  0  0  0  0  0
   -8.7278   -9.9678  -17.2400 C   0  0  0  0  0  0
   -8.1159   -9.6390  -18.0661 H   0  0  0  0  0  0
   -9.5621  -11.9122  -18.5237 N   0  0  0  0  0  0
  -10.3878  -12.4843  -18.6262 H   0  0  0  0  0  0
   -8.6156  -12.0645  -19.4696 C   0  0  0  0  0  0
   -7.5576  -11.4366  -19.5066 O   0  0  0  0  0  0
   -8.9158  -13.1019  -20.5632 C   0  0  0  0  0  0
   -8.7505  -12.6039  -22.0104 C   0  0  0  0  0  0
   -8.0549  -13.9211  -22.3443 C   0  0  0  0  0  0
   -7.7481  -14.0634  -20.8541 C   0  0  0  0  0  0
   -7.8950  -15.0701  -20.4697 H   0  0  0  0  0  0
   -6.7647  -13.6748  -20.5855 H   0  0  0  0  0  0
   -7.1846  -13.8169  -22.9896 H   0  0  0  0  0  0
   -8.7540  -14.6728  -22.7115 H   0  0  0  0  0  0
   -8.0919  -11.7390  -22.1094 H   0  0  0  0  0  0
   -9.6871  -12.4537  -22.5461 H   0  0  0  0  0  0
   -9.8592  -13.6327  -20.4148 H   0  0  0  0  0  0
  -11.0205  -11.1043  -14.4085 H   0  0  0  0  0  0
   -9.6355   -9.0878  -14.0625 H   0  0  0  0  0  0
   -4.7626   -7.6123  -15.8617 Cl  0  0  0  0  0  0
   -3.7328   -5.0680  -16.4564 H   0  0  0  0  0  0
  1  2  1  0  0  0
  2  7  1  0  0  0
  2  3  2  0  0  0
  3  4  1  0  0  0
  3 39  1  0  0  0
  4  5  2  0  0  0
  4 38  1  0  0  0
  5  6  1  0  0  0
  5 10  1  0  0  0
  6  7  2  0  0  0
  6  9  1  0  0  0
  7  8  1  0  0  0
 10 11  2  0  0  0
 10 12  1  0  0  0
 12 13  1  0  0  0
 12 14  1  0  0  0
 14 19  1  0  0  0
 14 15  2  0  0  0
 15 16  1  0  0  0
 15 37  1  0  0  0
 16 17  2  0  0  0
 16 36  1  0  0  0
 17 18  1  0  0  0
 18 19  2  0  0  0
 18 21  1  0  0  0
 19 20  1  0  0  0
 21 22  1  0  0  0
 21 23  1  0  0  0
 23 24  2  0  0  0
 23 25  1  0  0  0
 25 28  1  0  0  0
 25 26  1  0  0  0
 25 35  1  0  0  0
 26 27  1  0  0  0
 26 33  1  0  0  0
 26 34  1  0  0  0
 27 28  1  0  0  0
 27 31  1  0  0  0
 27 32  1  0  0  0
 28 29  1  0  0  0
 28 30  1  0  0  0
M  END
$$$$
lig_ejm_54
                    3D
 Schrodinger Suite 2021-1.
 37 38  0  0  1  0            999 V2000
   -4.7578   -2.7993  -16.5051 H   0  0  0  0  0  0
   -5.3514   -3.6599  -16.2344 C   0  0  0  0  0  0
   -4.7696   -4.9378  -16.2142 C   0  0  0  0  0  0
   -5.5360   -6.0619  -15.8526 C   0  0  0  0  0  0
   -6.9006   -5.9141  -15.4908 C   0  0  0  0  0  0
   -7.4869   -4.6248  -15.5374 C   0  0  0  0  0  0
   -6.7101   -3.5127  -15.9091 C   0  0  0  0  0  0
   -7.1648   -2.5349  -15.9467 H   0  0  0  0  0  0
   -9.1614   -4.3674  -15.1913 Cl  0  0  0  0  0  0
   -7.7176   -7.0947  -15.0507 C   0  0  0  0  0  0
   -8.1431   -7.1571  -13.8990 O   0  0  0  0  0  0
   -7.9033   -8.0197  -16.0086 N   0  0  0  0  0  0
   -7.4259   -7.8384  -16.8762 H   0  0  0  0  0  0
   -8.7206   -9.1775  -16.0106 C   0  0  0  0  0  0
   -9.5578   -9.5778  -14.9482 C   0  0  0  0  0  0
  -10.3624  -10.7165  -15.1275 C   0  0  0  0  0  0
  -10.3499  -11.4648  -16.2503 N   0  0  0  0  0  0
   -9.5310  -11.1125  -17.2651 C   0  0  0  0  0  0
   -8.7153   -9.9575  -17.1828 C   0  0  0  0  0  0
   -8.0992   -9.6448  -18.0114 H   0  0  0  0  0  0
   -9.5634  -11.9036  -18.4415 N   0  0  0  0  0  0
  -10.4050  -12.4592  -18.5254 H   0  0  0  0  0  0
   -8.6819  -12.0047  -19.4507 C   0  0  0  0  0  0
   -7.5893  -11.4383  -19.5094 O   0  0  0  0  0  0
   -9.1362  -12.8239  -20.4083 N   0  0  0  0  0  0
  -10.0508  -13.2435  -20.3003 H   0  0  0  0  0  0
   -8.4102  -13.1760  -21.6202 C   0  0  0  0  0  0
   -9.1261  -13.5744  -22.3423 H   0  0  0  0  0  0
   -7.9743  -12.2816  -22.0701 H   0  0  0  0  0  0
   -7.3238  -14.2238  -21.3339 C   0  0  0  0  0  0
   -6.8230  -14.5275  -22.2548 H   0  0  0  0  0  0
   -6.5664  -13.8331  -20.6518 H   0  0  0  0  0  0
   -7.7600  -15.1133  -20.8775 H   0  0  0  0  0  0
  -11.0297  -11.0394  -14.3445 H   0  0  0  0  0  0
   -9.6291   -9.0309  -14.0216 H   0  0  0  0  0  0
   -4.7614   -7.6033  -15.8541 Cl  0  0  0  0  0  0
   -3.7278   -5.0510  -16.4752 H   0  0  0  0  0  0
  1  2  1  0  0  0
  2  7  1  0  0  0
  2  3  2  0  0  0
  3  4  1  0  0  0
  3 37  1  0  0  0
  4  5  2  0  0  0
  4 36  1  0  0  0
  5  6  1  0  0  0
  5 10  1  0  0  0
  6  7  2  0  0  0
  6  9  1  0  0  0
  7  8  1  0  0  0
 10 11  2  0  0  0
 10 12  1  0  0  0
 12 13  1  0  0  0
 12 14  1  0  0  0
 14 19  1  0  0  0
 14 15  2  0  0  0
 15 16  1  0  0  0
 15 35  1  0  0  0
 16 17  2  0  0  0
 16 34  1  0  0  0
 17 18  1  0  0  0
 18 19  2  0  0  0
 18 21  1  0  0  0
 19 20  1  0  0  0
 21 22  1  0  0  0
 21 23  1  0  0  0
 23 24  2  0  0  0
 23 25  1  0  0  0
 25 26  1  0  0  0
 25 27  1  0  0  0
 27 28  1  0  0  0
 27 29  1  0  0  0
 27 30  1  0  0  0
 30 31  1  0  0  0
 30 32  1  0  0  0
 30 33  1  0  0  0
M  END
$$$$
lig_ejm_31
                    3D
 Schrodinger Suite 2021-1.
 32 33  0  0  1  0            999 V2000
   -4.7328   -2.8406  -16.5345 H   0  0  0  0  0  0
   -5.3293   -3.6938  -16.2550 C   0  0  0  0  0  0
   -6.6841   -3.5314  -15.9280 C   0  0  0  0  0  0
   -7.4676   -4.6398  -15.5542 C   0  0  0  0  0  0
   -6.8908   -5.9351  -15.5002 C   0  0  0  0  0  0
   -5.5272   -6.0907  -15.8580 C   0  0  0  0  0  0
   -4.7579   -4.9745  -16.2307 C   0  0  0  0  0  0
   -3.7168   -5.0982  -16.4901 H   0  0  0  0  0  0
   -4.7507   -7.6313  -15.8556 Cl  0  0  0  0  0  0
   -7.7152   -7.1125  -15.0662 C   0  0  0  0  0  0
   -8.1412   -7.1777  -13.9148 O   0  0  0  0  0  0
   -7.9116   -8.0316  -16.0297 N   0  0  0  0  0  0
   -7.4336   -7.8469  -16.8993 H   0  0  0  0  0  0
   -8.7305   -9.1915  -16.0365 C   0  0  0  0  0  0
   -9.5728   -9.5831  -14.9776 C   0  0  0  0  0  0
  -10.3714  -10.7230  -15.1584 C   0  0  0  0  0  0
  -10.3524  -11.4827  -16.2752 N   0  0  0  0  0  0
   -9.5311  -11.1368  -17.2925 C   0  0  0  0  0  0
   -8.7188   -9.9787  -17.2052 C   0  0  0  0  0  0
   -8.0898   -9.6682  -18.0261 H   0  0  0  0  0  0
   -9.5611  -11.9235  -18.4751 N   0  0  0  0  0  0
  -10.3830  -12.5070  -18.5652 H   0  0  0  0  0  0
   -8.6561  -12.0270  -19.4659 C   0  0  0  0  0  0
   -7.5764  -11.4378  -19.5035 O   0  0  0  0  0  0
   -9.0248  -12.9532  -20.6215 C   0  0  0  0  0  0
   -9.1266  -13.9764  -20.2738 H   0  0  0  0  0  0
   -8.2580  -12.9399  -21.3943 H   0  0  0  0  0  0
   -9.9656  -12.6571  -21.0817 H   0  0  0  0  0  0
  -11.0482  -11.0409  -14.3763 H   0  0  0  0  0  0
   -9.6570   -9.0255  -14.0581 H   0  0  0  0  0  0
   -9.1431   -4.3716  -15.2096 Cl  0  0  0  0  0  0
   -7.1299   -2.5511  -15.9699 H   0  0  0  0  0  0
  1  2  1  0  0  0
  2  7  1  0  0  0
  2  3  2  0  0  0
  3  4  1  0  0  0
  3 32  1  0  0  0
  4  5  2  0  0  0
  4 31  1  0  0  0
  5  6  1  0  0  0
  5 10  1  0  0  0
  6  7  2  0  0  0
  6  9  1  0  0  0
  7  8  1  0  0  0
 10 11  2  0  0  0
 10 12  1  0  0  0
 12 13  1  0  0  0
 12 14  1  0  0  0
 14 19  1  0  0  0
 14 15  2  0  0  0
 15 16  1  0  0  0
 15 30  1  0  0  0
 16 17  2  0  0  0
 16 29  1  0  0  0
 17 18  1  0  0  0
 18 19  2  0  0  0
 18 21  1  0  0  0
 19 20  1  0  0  0
 21 22  1  0  0  0
 21 23  1  0  0  0
 23 24  2  0  0  0
 23 25  1  0  0  0
 25 26  1  0  0  0
 25 27  1  0  0  0
 25 28  1  0  0  0
M  END
$$$$
lig_jmc_27
                    3D
 Schrodinger Suite 2021-1.
 36 38  0  0  1  0            999 V2000
   -4.7422   -2.7944  -16.5188 H   0  0  0  0  0  0
   -5.3429   -3.6514  -16.2522 C   0  0  0  0  0  0
   -6.7016   -3.4972  -15.9273 C   0  0  0  0  0  0
   -7.4851   -4.6106  -15.5696 C   0  0  0  0  0  0
   -6.9033   -5.9023  -15.5234 C   0  0  0  0  0  0
   -5.5351   -6.0506  -15.8706 C   0  0  0  0  0  0
   -4.7643   -4.9299  -16.2346 C   0  0  0  0  0  0
   -3.7204   -5.0458  -16.4863 H   0  0  0  0  0  0
   -4.7618   -7.5931  -15.8539 Cl  0  0  0  0  0  0
   -7.7224   -7.0843  -15.0896 C   0  0  0  0  0  0
   -8.1355   -7.1614  -13.9322 O   0  0  0  0  0  0
   -7.9258   -7.9959  -16.0565 N   0  0  0  0  0  0
   -7.4575   -7.7985  -16.9291 H   0  0  0  0  0  0
   -8.7356   -9.1624  -16.0568 C   0  0  0  0  0  0
   -9.5632   -9.5733  -14.9892 C   0  0  0  0  0  0
  -10.3575  -10.7206  -15.1655 C   0  0  0  0  0  0
  -10.3327  -11.4771  -16.2836 N   0  0  0  0  0  0
   -9.5288  -11.1127  -17.3089 C   0  0  0  0  0  0
   -8.7354   -9.9393  -17.2295 C   0  0  0  0  0  0
   -8.1326   -9.6116  -18.0598 H   0  0  0  0  0  0
   -9.5450  -11.9161  -18.4833 N   0  0  0  0  0  0
  -10.3571  -12.5130  -18.5700 H   0  0  0  0  0  0
   -8.6181  -12.0477  -19.4551 C   0  0  0  0  0  0
   -7.5628  -11.4136  -19.5029 O   0  0  0  0  0  0
   -9.0068  -13.0396  -20.5093 C   0  0  2  0  0  0
   -7.9610  -13.8583  -21.2676 C   0  0  1  0  0  0
   -8.6607  -12.7135  -21.9498 C   0  0  0  0  0  0
   -8.0818  -11.8125  -22.1475 H   0  0  0  0  0  0
   -9.4124  -12.9479  -22.7007 H   0  0  0  0  0  0
   -8.2447  -14.8652  -21.5624 H   0  0  0  0  0  0
   -6.2266  -13.7450  -21.0537 Cl  0  0  0  0  0  0
   -9.9695  -13.5279  -20.3600 H   0  0  0  0  0  0
  -11.0161  -11.0572  -14.3783 H   0  0  0  0  0  0
   -9.6326   -9.0292  -14.0612 H   0  0  0  0  0  0
   -9.1607   -4.3501  -15.2256 Cl  0  0  0  0  0  0
   -7.1530   -2.5174  -15.9540 H   0  0  0  0  0  0
  1  2  1  0  0  0
  2  7  1  0  0  0
  2  3  2  0  0  0
  3  4  1  0  0  0
  3 36  1  0  0  0
  4  5  2  0  0  0
  4 35  1  0  0  0
  5  6  1  0  0  0
  5 10  1  0  0  0
  6  7  2  0  0  0
  6  9  1  0  0  0
  7  8  1  0  0  0
 10 11  2  0  0  0
 10 12  1  0  0  0
 12 13  1  0  0  0
 12 14  1  0  0  0
 14 19  1  0  0  0
 14 15  2  0  0  0
 15 16  1  0  0  0
 15 34  1  0  0  0
 16 17  2  0  0  0
 16 33  1  0  0  0
 17 18  1  0  0  0
 18 19  2  0  0  0
 18 21  1  0  0  0
 19 20  1  0  0  0
 21 22  1  0  0  0
 21 23  1  0  0  0
 23 24  2  0  0  0
 23 25  1  0  0  0
 25 27  1  0  0  0
 25 26  1  0  0  0
 25 32  1  0  0  0
 26 27  1  0  0  0
 26 30  1  0  0  0
 26 31  1  0  0  0
 27 28  1  0  0  0
 27 29  1  0  0  0
M  END
$$$$
lig_ejm_46
                    3D
 Schrodinger Suite 2021-1.
 36 38  0  0  1  0            999 V2000
   -4.7208   -2.8501  -16.5502 H   0  0  0  0  0  0
   -5.3192   -3.7053  -16.2637 C   0  0  0  0  0  0
   -6.6765   -3.5442  -15.9337 C   0  0  0  0  0  0
   -7.4597   -4.6540  -15.5561 C   0  0  0  0  0  0
   -6.8799   -5.9484  -15.5008 C   0  0  0  0  0  0
   -5.5146   -6.1060  -15.8587 C   0  0  0  0  0  0
   -4.7450   -4.9879  -16.2333 C   0  0  0  0  0  0
   -3.7028   -5.1100  -16.4930 H   0  0  0  0  0  0
   -4.7461   -7.6491  -15.8537 Cl  0  0  0  0  0  0
   -7.7038   -7.1265  -15.0642 C   0  0  0  0  0  0
   -8.1231   -7.1947  -13.9093 O   0  0  0  0  0  0
   -7.9091   -8.0371  -16.0324 N   0  0  0  0  0  0
   -7.4404   -7.8469  -16.9042 H   0  0  0  0  0  0
   -8.7267   -9.2008  -16.0362 C   0  0  0  0  0  0
   -9.5781   -9.5918  -14.9825 C   0  0  0  0  0  0
  -10.3742  -10.7337  -15.1616 C   0  0  0  0  0  0
  -10.3538  -11.4946  -16.2773 N   0  0  0  0  0  0
   -9.5355  -11.1409  -17.2960 C   0  0  0  0  0  0
   -8.7188   -9.9865  -17.2026 C   0  0  0  0  0  0
   -8.0998   -9.6738  -18.0271 H   0  0  0  0  0  0
   -9.5469  -11.9357  -18.4803 N   0  0  0  0  0  0
  -10.3499  -12.5454  -18.5779 H   0  0  0  0  0  0
   -8.6239  -12.0380  -19.4614 C   0  0  0  0  0  0
   -7.5623  -11.4105  -19.5056 O   0  0  0  0  0  0
   -9.0001  -13.0179  -20.5271 C   0  0  0  0  0  0
   -8.5931  -12.7199  -21.9528 C   0  0  0  0  0  0
   -7.8866  -13.8090  -21.1845 C   0  0  0  0  0  0
   -8.1031  -14.8438  -21.4451 H   0  0  0  0  0  0
   -6.8549  -13.6148  -20.8888 H   0  0  0  0  0  0
   -8.0242  -11.8143  -22.1633 H   0  0  0  0  0  0
   -9.3057  -13.0049  -22.7247 H   0  0  0  0  0  0
   -9.9549  -13.5288  -20.4017 H   0  0  0  0  0  0
  -11.0569  -11.0402  -14.3815 H   0  0  0  0  0  0
   -9.6643   -9.0272  -14.0662 H   0  0  0  0  0  0
   -9.1339   -4.3913  -15.2093 Cl  0  0  0  0  0  0
   -7.1213   -2.5623  -15.9820 H   0  0  0  0  0  0
  1  2  1  0  0  0
  2  7  1  0  0  0
  2  3  2  0  0  0
  3  4  1  0  0  0
  3 36  1  0  0  0
  4  5  2  0  0  0
  4 35  1  0  0  0
  5  6  1  0  0  0
  5 10  1  0  0  0
  6  7  2  0  0  0
  6  9  1  0  0  0
  7  8  1  0  0  0
 10 11  2  0  0  0
 10 12  1  0  0  0
 12 13  1  0  0  0
 12 14  1  0  0  0
 14 19  1  0  0  0
 14 15  2  0  0  0
 15 16  1  0  0  0
 15 34  1  0  0  0
 16 17  2  0  0  0
 16 33  1  0  0  0
 17 18  1  0  0  0
 18 19  2  0  0  0
 18 21  1  0  0  0
 19 20  1  0  0  0
 21 22  1  0  0  0
 21 23  1  0  0  0
 23 24  2  0  0  0
 23 25  1  0  0  0
 25 27  1  0  0  0
 25 26  1  0  0  0
 25 32  1  0  0  0
 26 27  1  0  0  0
 26 30  1  0  0  0
 26 31  1  0  0  0
 27 28  1  0  0  0
 27 29  1  0  0  0
M  END
$$$$
lig_ejm_45
                    3D
 Schrodinger Suite 2021-1.
 39 41  0  0  1  0            999 V2000
   -4.7203   -2.9004  -16.5231 H   0  0  0  0  0  0
   -5.3172   -3.7596  -16.2541 C   0  0  0  0  0  0
   -4.7430   -5.0251  -16.2131 C   0  0  0  0  0  0
   -5.5011   -6.1348  -15.8399 C   0  0  0  0  0  0
   -6.8592   -5.9811  -15.4868 C   0  0  0  0  0  0
   -7.4396   -4.6989  -15.5643 C   0  0  0  0  0  0
   -6.6638   -3.6040  -15.9430 C   0  0  0  0  0  0
   -7.1158   -2.6242  -15.9987 H   0  0  0  0  0  0
   -9.1185   -4.4149  -15.2356 Cl  0  0  0  0  0  0
   -7.6880   -7.1602  -15.0497 C   0  0  0  0  0  0
   -8.0641   -7.2580  -13.8810 O   0  0  0  0  0  0
   -7.9265   -8.0440  -16.0375 N   0  0  0  0  0  0
   -7.4841   -7.8380  -16.9205 H   0  0  0  0  0  0
   -8.7313   -9.1920  -16.0384 C   0  0  0  0  0  0
   -9.5861   -9.5897  -14.9963 C   0  0  0  0  0  0
  -10.3675  -10.7298  -15.1795 C   0  0  0  0  0  0
  -10.3242  -11.4849  -16.3053 N   0  0  0  0  0  0
   -9.4868  -11.1086  -17.3056 C   0  0  0  0  0  0
   -8.6869   -9.9586  -17.2046 C   0  0  0  0  0  0
   -8.0565   -9.6790  -18.0345 H   0  0  0  0  0  0
   -9.5108  -11.9504  -18.4288 N   0  0  0  0  0  0
  -10.3010  -12.5744  -18.4832 H   0  0  0  0  0  0
   -8.6312  -12.0361  -19.4501 C   0  0  0  0  0  0
   -7.5812  -11.3954  -19.5307 O   0  0  0  0  0  0
   -9.0181  -13.0405  -20.5493 C   0  0  0  0  0  0
   -9.3975  -12.5073  -21.4223 H   0  0  0  0  0  0
   -9.8292  -13.6714  -20.1850 H   0  0  0  0  0  0
   -7.8518  -13.9286  -20.9731 C   0  0  0  0  0  0
   -7.7260  -14.2653  -22.4397 C   0  0  0  0  0  0
   -6.7577  -13.2983  -21.8013 C   0  0  0  0  0  0
   -5.7369  -13.6421  -21.6349 H   0  0  0  0  0  0
   -6.8594  -12.2425  -22.0524 H   0  0  0  0  0  0
   -8.4751  -13.8560  -23.1176 H   0  0  0  0  0  0
   -7.3526  -15.2556  -22.7001 H   0  0  0  0  0  0
   -7.5623  -14.6939  -20.2529 H   0  0  0  0  0  0
  -11.0511  -11.0549  -14.4092 H   0  0  0  0  0  0
   -9.6390   -9.0353  -14.0708 H   0  0  0  0  0  0
   -4.7093   -7.6726  -15.8596 Cl  0  0  0  0  0  0
   -3.6995   -5.1465  -16.4654 H   0  0  0  0  0  0
  1  2  1  0  0  0
  2  7  1  0  0  0
  2  3  2  0  0  0
  3  4  1  0  0  0
  3 39  1  0  0  0
  4  5  2  0  0  0
  4 38  1  0  0  0
  5  6  1  0  0  0
  5 10  1  0  0  0
  6  7  2  0  0  0
  6  9  1  0  0  0
  7  8  1  0  0  0
 10 11  2  0  0  0
 10 12  1  0  0  0
 12 13  1  0  0  0
 12 14  1  0  0  0
 14 19  1  0  0  0
 14 15  2  0  0  0
 15 16  1  0  0  0
 15 37  1  0  0  0
 16 17  2  0  0  0
 16 36  1  0  0  0
 17 18  1  0  0  0
 18 19  2  0  0  0
 18 21  1  0  0  0
 19 20  1  0  0  0
 21 22  1  0  0  0
 21 23  1  0  0  0
 23 24  2  0  0  0
 23 25  1  0  0  0
 25 26  1  0  0  0
 25 27  1  0  0  0
 25 28  1  0  0  0
 28 30  1  0  0  0
 28 29  1  0  0  0
 28 35  1  0  0  0
 29 30  1  0  0  0
 29 33  1  0  0  0
 29 34  1  0  0  0
 30 31  1  0  0  0
 30 32  1  0  0  0
M  END
$$$$
lig_ejm_42
                    3D
 Schrodinger Suite 2021-1.
 35 36  0  0  1  0            999 V2000
   -4.6587   -2.8057  -16.5699 H   0  0  0  0  0  0
   -5.2517   -3.6585  -16.2950 C   0  0  0  0  0  0
   -4.9788   -4.7107  -16.2287 C   0  0  0  0  0  0
   -5.9133   -5.7897  -15.7989 C   0  0  0  0  0  0
   -6.9178   -6.0655  -15.4410 C   0  0  0  0  0  0
   -6.9903   -4.9784  -15.6089 C   0  0  0  0  0  0
   -6.3074   -3.7187  -16.0280 C   0  0  0  0  0  0
   -6.9491   -2.8341  -16.0212 H   0  0  0  0  0  0
   -8.2565   -4.9709  -15.4901 Cl  0  0  0  0  0  0
   -7.7455   -7.2535  -15.0097 C   0  0  0  0  0  0
   -8.0995   -7.3290  -13.8341 O   0  0  0  0  0  0
   -7.9872   -8.0727  -16.0418 N   0  0  0  0  0  0
   -7.4974   -7.8367  -16.9042 H   0  0  0  0  0  0
   -8.7481   -9.2146  -16.0539 C   0  0  0  0  0  0
   -9.5823   -9.5921  -14.9926 C   0  0  0  0  0  0
  -10.3705  -10.7280  -15.1764 C   0  0  0  0  0  0
  -10.3320  -11.4814  -16.2912 N   0  0  0  0  0  0
   -9.5027  -11.1313  -17.2982 C   0  0  0  0  0  0
   -8.6973   -9.9778  -17.2210 C   0  0  0  0  0  0
   -8.0570   -9.6629  -18.0320 H   0  0  0  0  0  0
   -9.5139  -11.9442  -18.4480 N   0  0  0  0  0  0
  -10.3004  -12.5740  -18.4870 H   0  0  0  0  0  0
   -8.6316  -12.0419  -19.4568 C   0  0  0  0  0  0
   -7.5800  -11.4065  -19.5482 O   0  0  0  0  0  0
   -9.0166  -13.0427  -20.5483 C   0  0  0  0  0  0
   -9.3202  -12.4952  -21.4417 H   0  0  0  0  0  0
   -9.8920  -13.6077  -20.2250 H   0  0  0  0  0  0
   -7.8770  -14.0100  -20.9026 C   0  0  0  0  0  0
   -8.1790  -14.6728  -21.7141 H   0  0  0  0  0  0
   -7.5953  -14.6330  -20.0549 H   0  0  0  0  0  0
   -6.9851  -13.4742  -21.2258 H   0  0  0  0  0  0
  -11.0483  -11.0518  -14.4052 H   0  0  0  0  0  0
   -9.6533   -9.0338  -14.0723 H   0  0  0  0  0  0
   -5.4953   -6.9778  -15.8133 Cl  0  0  0  0  0  0
   -3.9577   -5.0463  -16.4328 H   0  0  0  0  0  0
  1  2  1  0  0  0
  2  7  1  0  0  0
  2  3  2  0  0  0
  3  4  1  0  0  0
  3 35  1  0  0  0
  4  5  2  0  0  0
  4 34  1  0  0  0
  5  6  1  0  0  0
  5 10  1  0  0  0
  6  7  2  0  0  0
  6  9  1  0  0  0
  7  8  1  0  0  0
 10 11  2  0  0  0
 10 12  1  0  0  0
 12 13  1  0  0  0
 12 14  1  0  0  0
 14 19  1  0  0  0
 14 15  2  0  0  0
 15 16  1  0  0  0
 15 33  1  0  0  0
 16 17  2  0  0  0
 16 32  1  0  0  0
 17 18  1  0  0  0
 18 19  2  0  0  0
 18 21  1  0  0  0
 19 20  1  0  0  0
 21 22  1  0  0  0
 21 23  1  0  0  0
 23 24  2  0  0  0
 23 25  1  0  0  0
 25 26  1  0  0  0
 25 27  1  0  0  0
 25 28  1  0  0  0
 28 29  1  0  0  0
 28 30  1  0  0  0
 28 31  1  0  0  0
M  END
$$$$
lig_ejm_55
                    3D
 Schrodinger Suite 2021-1.
 33 34  0  0  1  0            999 V2000
   -4.6601   -2.8066  -16.5747 H   0  0  0  0  0  0
   -5.2469   -3.6516  -16.2971 C   0  0  0  0  0  0
   -4.9811   -4.7118  -16.2354 C   0  0  0  0  0  0
   -5.9156   -5.7908  -15.8036 C   0  0  0  0  0  0
   -6.9189   -6.0678  -15.4390 C   0  0  0  0  0  0
   -6.9889   -4.9786  -15.6031 C   0  0  0  0  0  0
   -6.3061   -3.7181  -16.0225 C   0  0  0  0  0  0
   -6.9477   -2.8333  -16.0161 H   0  0  0  0  0  0
   -8.2564   -4.9704  -15.4910 Cl  0  0  0  0  0  0
   -7.7446   -7.2521  -15.0102 C   0  0  0  0  0  0
   -8.1028   -7.3280  -13.8353 O   0  0  0  0  0  0
   -7.9794   -8.0787  -16.0379 N   0  0  0  0  0  0
   -7.4571   -7.8652  -16.8873 H   0  0  0  0  0  0
   -8.7488   -9.2153  -16.0515 C   0  0  0  0  0  0
   -9.5879   -9.5904  -14.9922 C   0  0  0  0  0  0
  -10.3735  -10.7270  -15.1744 C   0  0  0  0  0  0
  -10.3359  -11.4812  -16.2858 N   0  0  0  0  0  0
   -9.5085  -11.1319  -17.2906 C   0  0  0  0  0  0
   -8.6956   -9.9804  -17.2176 C   0  0  0  0  0  0
   -8.0447   -9.6624  -18.0209 H   0  0  0  0  0  0
   -9.5250  -11.9551  -18.4267 N   0  0  0  0  0  0
  -10.3003  -12.5944  -18.5061 H   0  0  0  0  0  0
   -8.6162  -12.0327  -19.4578 C   0  0  0  0  0  0
   -7.5640  -11.4051  -19.5870 O   0  0  0  0  0  0
   -9.1113  -12.9060  -20.3397 O   0  0  0  0  0  0
   -8.6694  -12.8820  -21.6817 C   0  0  0  0  0  0
   -9.1615  -13.6712  -22.2510 H   0  0  0  0  0  0
   -8.9297  -11.9263  -22.1386 H   0  0  0  0  0  0
   -7.5921  -13.0240  -21.7490 H   0  0  0  0  0  0
  -11.0527  -11.0494  -14.4054 H   0  0  0  0  0  0
   -9.6704   -9.0349  -14.0715 H   0  0  0  0  0  0
   -5.4942   -6.9772  -15.8135 Cl  0  0  0  0  0  0
   -3.9607   -5.0479  -16.4439 H   0  0  0  0  0  0
  1  2  1  0  0  0
  2  7  1  0  0  0
  2  3  2  0  0  0
  3  4  1  0  0  0
  3 33  1  0  0  0
  4  5  2  0  0  0
  4 32  1  0  0  0
  5  6  1  0  0  0
  5 10  1  0  0  0
  6  7  2  0  0  0
  6  9  1  0  0  0
  7  8  1  0  0  0
 10 11  2  0  0  0
 10 12  1  0  0  0
 12 13  1  0  0  0
 12 14  1  0  0  0
 14 19  1  0  0  0
 14 15  2  0  0  0
 15 16  1  0  0  0
 15 31  1  0  0  0
 16 17  2  0  0  0
 16 30  1  0  0  0
 17 18  1  0  0  0
 18 19  2  0  0  0
 18 21  1  0  0  0
 19 20  1  0  0  0
 21 22  1  0  0  0
 21 23  1  0  0  0
 23 24  2  0  0  0
 23 25  1  0  0  0
 25 26  1  0  0  0
 26 27  1  0  0  0
 26 28  1  0  0  0
 26 29  1  0  0  0
M  END
$$$$
lig_ejm_48
                    3D
 Schrodinger Suite 2021-1.
 42 44  0  0  1  0            999 V2000
   -4.6820   -2.7908  -16.5729 H   0  0  0  0  0  0
   -5.2559   -3.6520  -16.2947 C   0  0  0  0  0  0
   -4.9954   -4.7046  -16.2408 C   0  0  0  0  0  0
   -5.9262   -5.7866  -15.8141 C   0  0  0  0  0  0
   -6.9182   -6.0614  -15.4416 C   0  0  0  0  0  0
   -7.0016   -4.9782  -15.6032 C   0  0  0  0  0  0
   -6.3181   -3.7123  -16.0133 C   0  0  0  0  0  0
   -6.9739   -2.8315  -16.0031 H   0  0  0  0  0  0
   -8.2728   -4.9721  -15.4595 Cl  0  0  0  0  0  0
   -7.7391   -7.2472  -15.0135 C   0  0  0  0  0  0
   -8.0963   -7.3284  -13.8338 O   0  0  0  0  0  0
   -7.9783   -8.0807  -16.0366 N   0  0  0  0  0  0
   -7.4603   -7.8653  -16.8879 H   0  0  0  0  0  0
   -8.7448   -9.2191  -16.0476 C   0  0  0  0  0  0
   -9.5776   -9.6003  -14.9859 C   0  0  0  0  0  0
  -10.3616  -10.7407  -15.1672 C   0  0  0  0  0  0
  -10.3222  -11.4938  -16.2816 N   0  0  0  0  0  0
   -9.4987  -11.1371  -17.2892 C   0  0  0  0  0  0
   -8.6942   -9.9825  -17.2136 C   0  0  0  0  0  0
   -8.0504   -9.6699  -18.0228 H   0  0  0  0  0  0
   -9.5104  -11.9494  -18.4352 N   0  0  0  0  0  0
  -10.2896  -12.5884  -18.4757 H   0  0  0  0  0  0
   -8.6291  -12.0313  -19.4407 C   0  0  0  0  0  0
   -7.5818  -11.3881  -19.5318 O   0  0  0  0  0  0
   -8.9965  -13.0325  -20.5291 C   0  0  0  0  0  0
   -9.0158  -12.3694  -21.8981 C   0  0  0  0  0  0
   -8.6260  -13.3849  -22.9525 C   0  0  0  0  0  0
   -8.0634  -14.5635  -22.1681 C   0  0  0  0  0  0
   -7.8960  -14.0676  -20.7331 C   0  0  0  0  0  0
   -7.9436  -14.8839  -20.0257 H   0  0  0  0  0  0
   -6.9208  -13.5992  -20.6131 H   0  0  0  0  0  0
   -7.1282  -14.9272  -22.5857 H   0  0  0  0  0  0
   -8.7791  -15.3843  -22.1937 H   0  0  0  0  0  0
   -7.8844  -12.9421  -23.6135 H   0  0  0  0  0  0
   -9.4781  -13.6866  -23.5651 H   0  0  0  0  0  0
   -8.3559  -11.5156  -21.9324 H   0  0  0  0  0  0
   -9.9629  -11.9663  -22.1259 H   0  0  0  0  0  0
   -9.9579  -13.5046  -20.2939 H   0  0  0  0  0  0
  -11.0304  -11.0728  -14.3921 H   0  0  0  0  0  0
   -9.6489   -9.0423  -14.0656 H   0  0  0  0  0  0
   -5.4952   -6.9726  -15.8192 Cl  0  0  0  0  0  0
   -3.9742   -5.0364  -16.4508 H   0  0  0  0  0  0
  1  2  1  0  0  0
  2  7  1  0  0  0
  2  3  2  0  0  0
  3  4  1  0  0  0
  3 42  1  0  0  0
  4  5  2  0  0  0
  4 41  1  0  0  0
  5  6  1  0  0  0
  5 10  1  0  0  0
  6  7  2  0  0  0
  6  9  1  0  0  0
  7  8  1  0  0  0
 10 11  2  0  0  0
 10 12  1  0  0  0
 12 13  1  0  0  0
 12 14  1  0  0  0
 14 19  1  0  0  0
 14 15  2  0  0  0
 15 16  1  0  0  0
 15 40  1  0  0  0
 16 17  2  0  0  0
 16 39  1  0  0  0
 17 18  1  0  0  0
 18 19  2  0  0  0
 18 21  1  0  0  0
 19 20  1  0  0  0
 21 22  1  0  0  0
 21 23  1  0  0  0
 23 24  2  0  0  0
 23 25  1  0  0  0
 25 29  1  0  0  0
 25 26  1  0  0  0
 25 38  1  0  0  0
 26 27  1  0  0  0
 26 36  1  0  0  0
 26 37  1  0  0  0
 27 28  1  0  0  0
 27 34  1  0  0  0
 27 35  1  0  0  0
 28 29  1  0  0  0
 28 32  1  0  0  0
 28 33  1  0  0  0
 29 30  1  0  0  0
 29 31  1  0  0  0
M  END
$$$$
lig_ejm_43
                    3D
 Schrodinger Suite 2021-1.
 38 39  0  0  1  0            999 V2000
   -4.6592   -2.8071  -16.5749 H   0  0  0  0  0  0
   -5.2477   -3.6529  -16.2968 C   0  0  0  0  0  0
   -6.3061   -3.7178  -16.0225 C   0  0  0  0  0  0
   -6.9886   -4.9775  -15.6026 C   0  0  0  0  0  0
   -6.9175   -6.0655  -15.4409 C   0  0  0  0  0  0
   -5.9148   -5.7903  -15.8039 C   0  0  0  0  0  0
   -4.9809   -4.7117  -16.2356 C   0  0  0  0  0  0
   -3.9609   -5.0475  -16.4439 H   0  0  0  0  0  0
   -5.4944   -6.9764  -15.8139 Cl  0  0  0  0  0  0
   -7.7438   -7.2511  -15.0108 C   0  0  0  0  0  0
   -8.1022   -7.3276  -13.8351 O   0  0  0  0  0  0
   -7.9784   -8.0794  -16.0383 N   0  0  0  0  0  0
   -7.4547   -7.8672  -16.8870 H   0  0  0  0  0  0
   -8.7477   -9.2155  -16.0535 C   0  0  0  0  0  0
   -9.5856   -9.5899  -14.9941 C   0  0  0  0  0  0
  -10.3711  -10.7278  -15.1764 C   0  0  0  0  0  0
  -10.3325  -11.4814  -16.2910 N   0  0  0  0  0  0
   -9.5029  -11.1318  -17.2978 C   0  0  0  0  0  0
   -8.6941   -9.9807  -17.2190 C   0  0  0  0  0  0
   -8.0453   -9.6711  -18.0253 H   0  0  0  0  0  0
   -9.5123  -11.9469  -18.4460 N   0  0  0  0  0  0
  -10.2972  -12.5787  -18.4843 H   0  0  0  0  0  0
   -8.6298  -12.0434  -19.4554 C   0  0  0  0  0  0
   -7.5798  -11.4051  -19.5463 O   0  0  0  0  0  0
   -9.0073  -13.0517  -20.5505 C   0  0  0  0  0  0
   -9.9710  -13.4964  -20.2884 H   0  0  0  0  0  0
   -7.9612  -14.1439  -20.7227 C   0  0  0  0  0  0
   -7.7330  -14.6722  -19.8534 H   0  0  0  0  0  0
   -6.9866  -13.7664  -20.9932 H   0  0  0  0  0  0
   -8.2897  -14.9222  -21.3999 H   0  0  0  0  0  0
   -9.1395  -12.3855  -21.9054 C   0  0  0  0  0  0
   -9.8580  -11.6503  -21.7940 H   0  0  0  0  0  0
   -8.2346  -11.8979  -22.2550 H   0  0  0  0  0  0
   -9.5347  -13.0405  -22.6737 H   0  0  0  0  0  0
  -11.0475  -11.0526  -14.4045 H   0  0  0  0  0  0
   -9.6596   -9.0290  -14.0755 H   0  0  0  0  0  0
   -8.2559   -4.9707  -15.4927 Cl  0  0  0  0  0  0
   -6.9472   -2.8333  -16.0162 H   0  0  0  0  0  0
  1  2  1  0  0  0
  2  7  1  0  0  0
  2  3  2  0  0  0
  3  4  1  0  0  0
  3 38  1  0  0  0
  4  5  2  0  0  0
  4 37  1  0  0  0
  5  6  1  0  0  0
  5 10  1  0  0  0
  6  7  2  0  0  0
  6  9  1  0  0  0
  7  8  1  0  0  0
 10 11  2  0  0  0
 10 12  1  0  0  0
 12 13  1  0  0  0
 12 14  1  0  0  0
 14 19  1  0  0  0
 14 15  2  0  0  0
 15 16  1  0  0  0
 15 36  1  0  0  0
 16 17  2  0  0  0
 16 35  1  0  0  0
 17 18  1  0  0  0
 18 19  2  0  0  0
 18 21  1  0  0  0
 19 20  1  0  0  0
 21 22  1  0  0  0
 21 23  1  0  0  0
 23 24  2  0  0  0
 23 25  1  0  0  0
 25 26  1  0  0  0
 25 27  1  0  0  0
 25 31  1  0  0  0
 27 28  1  0  0  0
 27 29  1  0  0  0
 27 30  1  0  0  0
 31 32  1  0  0  0
 31 33  1  0  0  0
 31 34  1  0  0  0
M  END
$$$$
